12

 C                 -0.63549156   -1.16306953    0.00000000
 C                  0.75966844   -1.16306953    0.00000000
 C                  1.45720644    0.04468147    0.00000000
 C                  0.75955244    1.25319047   -0.00119900
 C                 -0.63527256    1.25311247   -0.00167800
 C                 -1.33287356    0.04490647   -0.00068200
 H                 -1.18525056   -2.11538653    0.00045000
 H                  1.30917644   -2.11558253    0.00131500
 H                  2.55688644    0.04476147    0.00063400
 H                  1.30975244    2.20533347   -0.00125800
 H                 -1.18539456    2.20539347   -0.00263100
 H                 -2.43247756    0.04508947   -0.00086200
